Version 4
SHEET 1 880 680
WIRE -16 -96 -112 -96
WIRE -16 0 -16 -16
WIRE 96 0 -16 0
WIRE 96 16 96 0
WIRE -16 32 -16 0
WIRE -112 80 -112 -96
WIRE -32 80 -112 80
WIRE 144 80 64 80
WIRE 368 80 304 80
WIRE 640 80 448 80
WIRE 640 112 640 80
WIRE -112 144 -112 80
WIRE 224 208 224 176
WIRE 448 208 448 80
WIRE 448 208 224 208
WIRE -112 288 -112 224
WIRE 192 288 -112 288
WIRE 640 288 640 176
WIRE 640 288 192 288
WIRE 192 304 192 288
FLAG 192 304 0
FLAG 96 16 0
DATAFLAG 224 208 ""
SYMBOL PowerProducts\\LM317 224 112 R0
SYMATTR InstName U1
SYMBOL voltage -112 128 R0
WINDOW 123 0 0 Left 0
WINDOW 39 0 0 Left 0
SYMATTR InstName V1
SYMATTR Value 3.3
SYMBOL res 464 64 R90
WINDOW 0 0 56 VBottom 2
WINDOW 3 32 56 VTop 2
SYMATTR InstName R1
SYMATTR Value 1.5
SYMBOL schottky 624 112 R0
SYMATTR InstName D1
SYMATTR Value BAT54
SYMATTR Description Diode
SYMATTR Type diode
SYMBOL pmos 64 32 R90
SYMATTR InstName M2
SYMATTR Value Si1013
SYMBOL res -32 -112 R0
SYMATTR InstName R2
SYMATTR Value 10k
TEXT -448 184 Left 2 !.tran 0 10m 0 1m
